*SPEF "ieee 1481-1999"
*DESIGN "user_project_wrapper"
*DATE "11:11:11 Fri 11 11, 1111"
*VENDOR "OpenRCX"
*PROGRAM "Parallel Extraction"
*VERSION "1.0"
*DESIGN_FLOW "NAME_SCOPE LOCAL" "PIN_CAP NONE"
*DIVIDER /
*DELIMITER :
*BUS_DELIMITER []
*T_UNIT 1 NS
*C_UNIT 1 PF
*R_UNIT 1 OHM
*L_UNIT 1 HENRY

*NAME_MAP
*1 io_in[0]
*2 io_in[10]
*3 io_in[11]
*4 io_in[12]
*5 io_in[13]
*6 io_in[14]
*7 io_in[15]
*8 io_in[16]
*9 io_in[17]
*10 io_in[18]
*11 io_in[19]
*12 io_in[1]
*13 io_in[20]
*14 io_in[21]
*15 io_in[22]
*16 io_in[23]
*17 io_in[24]
*18 io_in[25]
*19 io_in[26]
*20 io_in[27]
*21 io_in[28]
*22 io_in[29]
*23 io_in[2]
*24 io_in[30]
*25 io_in[31]
*26 io_in[32]
*27 io_in[33]
*28 io_in[34]
*29 io_in[35]
*30 io_in[36]
*31 io_in[37]
*32 io_in[3]
*33 io_in[4]
*34 io_in[5]
*35 io_in[6]
*36 io_in[7]
*37 io_in[8]
*38 io_in[9]
*39 io_oeb[0]
*40 io_oeb[10]
*41 io_oeb[11]
*42 io_oeb[12]
*43 io_oeb[13]
*44 io_oeb[14]
*45 io_oeb[15]
*46 io_oeb[16]
*47 io_oeb[17]
*48 io_oeb[18]
*49 io_oeb[19]
*50 io_oeb[1]
*51 io_oeb[20]
*52 io_oeb[21]
*53 io_oeb[22]
*54 io_oeb[23]
*55 io_oeb[24]
*56 io_oeb[25]
*57 io_oeb[26]
*58 io_oeb[27]
*59 io_oeb[28]
*60 io_oeb[29]
*61 io_oeb[2]
*62 io_oeb[30]
*63 io_oeb[31]
*64 io_oeb[32]
*65 io_oeb[33]
*66 io_oeb[34]
*67 io_oeb[35]
*68 io_oeb[36]
*69 io_oeb[37]
*70 io_oeb[3]
*71 io_oeb[4]
*72 io_oeb[5]
*73 io_oeb[6]
*74 io_oeb[7]
*75 io_oeb[8]
*76 io_oeb[9]
*77 io_out[0]
*78 io_out[10]
*79 io_out[11]
*80 io_out[12]
*81 io_out[13]
*82 io_out[14]
*83 io_out[15]
*84 io_out[16]
*85 io_out[17]
*86 io_out[18]
*87 io_out[19]
*88 io_out[1]
*89 io_out[20]
*90 io_out[21]
*91 io_out[22]
*92 io_out[23]
*93 io_out[24]
*94 io_out[25]
*95 io_out[26]
*96 io_out[27]
*97 io_out[28]
*98 io_out[29]
*99 io_out[2]
*100 io_out[30]
*101 io_out[31]
*102 io_out[32]
*103 io_out[33]
*104 io_out[34]
*105 io_out[35]
*106 io_out[36]
*107 io_out[37]
*108 io_out[3]
*109 io_out[4]
*110 io_out[5]
*111 io_out[6]
*112 io_out[7]
*113 io_out[8]
*114 io_out[9]
*115 la_data_in[0]
*116 la_data_in[10]
*117 la_data_in[11]
*118 la_data_in[12]
*119 la_data_in[13]
*120 la_data_in[14]
*121 la_data_in[15]
*122 la_data_in[16]
*123 la_data_in[17]
*124 la_data_in[18]
*125 la_data_in[19]
*126 la_data_in[1]
*127 la_data_in[20]
*128 la_data_in[21]
*129 la_data_in[22]
*130 la_data_in[23]
*131 la_data_in[24]
*132 la_data_in[25]
*133 la_data_in[26]
*134 la_data_in[27]
*135 la_data_in[28]
*136 la_data_in[29]
*137 la_data_in[2]
*138 la_data_in[30]
*139 la_data_in[31]
*140 la_data_in[32]
*141 la_data_in[33]
*142 la_data_in[34]
*143 la_data_in[35]
*144 la_data_in[36]
*145 la_data_in[37]
*146 la_data_in[38]
*147 la_data_in[39]
*148 la_data_in[3]
*149 la_data_in[40]
*150 la_data_in[41]
*151 la_data_in[42]
*152 la_data_in[43]
*153 la_data_in[44]
*154 la_data_in[45]
*155 la_data_in[46]
*156 la_data_in[47]
*157 la_data_in[48]
*158 la_data_in[49]
*159 la_data_in[4]
*160 la_data_in[50]
*161 la_data_in[51]
*162 la_data_in[52]
*163 la_data_in[53]
*164 la_data_in[54]
*165 la_data_in[55]
*166 la_data_in[56]
*167 la_data_in[57]
*168 la_data_in[58]
*169 la_data_in[59]
*170 la_data_in[5]
*171 la_data_in[60]
*172 la_data_in[61]
*173 la_data_in[62]
*174 la_data_in[63]
*175 la_data_in[6]
*176 la_data_in[7]
*177 la_data_in[8]
*178 la_data_in[9]
*179 la_data_out[0]
*180 la_data_out[10]
*181 la_data_out[11]
*182 la_data_out[12]
*183 la_data_out[13]
*184 la_data_out[14]
*185 la_data_out[15]
*186 la_data_out[16]
*187 la_data_out[17]
*188 la_data_out[18]
*189 la_data_out[19]
*190 la_data_out[1]
*191 la_data_out[20]
*192 la_data_out[21]
*193 la_data_out[22]
*194 la_data_out[23]
*195 la_data_out[24]
*196 la_data_out[25]
*197 la_data_out[26]
*198 la_data_out[27]
*199 la_data_out[28]
*200 la_data_out[29]
*201 la_data_out[2]
*202 la_data_out[30]
*203 la_data_out[31]
*204 la_data_out[32]
*205 la_data_out[33]
*206 la_data_out[34]
*207 la_data_out[35]
*208 la_data_out[36]
*209 la_data_out[37]
*210 la_data_out[38]
*211 la_data_out[39]
*212 la_data_out[3]
*213 la_data_out[40]
*214 la_data_out[41]
*215 la_data_out[42]
*216 la_data_out[43]
*217 la_data_out[44]
*218 la_data_out[45]
*219 la_data_out[46]
*220 la_data_out[47]
*221 la_data_out[48]
*222 la_data_out[49]
*223 la_data_out[4]
*224 la_data_out[50]
*225 la_data_out[51]
*226 la_data_out[52]
*227 la_data_out[53]
*228 la_data_out[54]
*229 la_data_out[55]
*230 la_data_out[56]
*231 la_data_out[57]
*232 la_data_out[58]
*233 la_data_out[59]
*234 la_data_out[5]
*235 la_data_out[60]
*236 la_data_out[61]
*237 la_data_out[62]
*238 la_data_out[63]
*239 la_data_out[6]
*240 la_data_out[7]
*241 la_data_out[8]
*242 la_data_out[9]
*243 la_oenb[0]
*244 la_oenb[10]
*245 la_oenb[11]
*246 la_oenb[12]
*247 la_oenb[13]
*248 la_oenb[14]
*249 la_oenb[15]
*250 la_oenb[16]
*251 la_oenb[17]
*252 la_oenb[18]
*253 la_oenb[19]
*254 la_oenb[1]
*255 la_oenb[20]
*256 la_oenb[21]
*257 la_oenb[22]
*258 la_oenb[23]
*259 la_oenb[24]
*260 la_oenb[25]
*261 la_oenb[26]
*262 la_oenb[27]
*263 la_oenb[28]
*264 la_oenb[29]
*265 la_oenb[2]
*266 la_oenb[30]
*267 la_oenb[31]
*268 la_oenb[32]
*269 la_oenb[33]
*270 la_oenb[34]
*271 la_oenb[35]
*272 la_oenb[36]
*273 la_oenb[37]
*274 la_oenb[38]
*275 la_oenb[39]
*276 la_oenb[3]
*277 la_oenb[40]
*278 la_oenb[41]
*279 la_oenb[42]
*280 la_oenb[43]
*281 la_oenb[44]
*282 la_oenb[45]
*283 la_oenb[46]
*284 la_oenb[47]
*285 la_oenb[48]
*286 la_oenb[49]
*287 la_oenb[4]
*288 la_oenb[50]
*289 la_oenb[51]
*290 la_oenb[52]
*291 la_oenb[53]
*292 la_oenb[54]
*293 la_oenb[55]
*294 la_oenb[56]
*295 la_oenb[57]
*296 la_oenb[58]
*297 la_oenb[59]
*298 la_oenb[5]
*299 la_oenb[60]
*300 la_oenb[61]
*301 la_oenb[62]
*302 la_oenb[63]
*303 la_oenb[6]
*304 la_oenb[7]
*305 la_oenb[8]
*306 la_oenb[9]
*307 user_clock2
*308 user_irq[0]
*309 user_irq[1]
*310 user_irq[2]
*313 wb_clk_i
*314 wb_rst_i
*315 wbs_ack_o
*316 wbs_adr_i[0]
*317 wbs_adr_i[10]
*318 wbs_adr_i[11]
*319 wbs_adr_i[12]
*320 wbs_adr_i[13]
*321 wbs_adr_i[14]
*322 wbs_adr_i[15]
*323 wbs_adr_i[16]
*324 wbs_adr_i[17]
*325 wbs_adr_i[18]
*326 wbs_adr_i[19]
*327 wbs_adr_i[1]
*328 wbs_adr_i[20]
*329 wbs_adr_i[21]
*330 wbs_adr_i[22]
*331 wbs_adr_i[23]
*332 wbs_adr_i[24]
*333 wbs_adr_i[25]
*334 wbs_adr_i[26]
*335 wbs_adr_i[27]
*336 wbs_adr_i[28]
*337 wbs_adr_i[29]
*338 wbs_adr_i[2]
*339 wbs_adr_i[30]
*340 wbs_adr_i[31]
*341 wbs_adr_i[3]
*342 wbs_adr_i[4]
*343 wbs_adr_i[5]
*344 wbs_adr_i[6]
*345 wbs_adr_i[7]
*346 wbs_adr_i[8]
*347 wbs_adr_i[9]
*348 wbs_cyc_i
*349 wbs_dat_i[0]
*350 wbs_dat_i[10]
*351 wbs_dat_i[11]
*352 wbs_dat_i[12]
*353 wbs_dat_i[13]
*354 wbs_dat_i[14]
*355 wbs_dat_i[15]
*356 wbs_dat_i[16]
*357 wbs_dat_i[17]
*358 wbs_dat_i[18]
*359 wbs_dat_i[19]
*360 wbs_dat_i[1]
*361 wbs_dat_i[20]
*362 wbs_dat_i[21]
*363 wbs_dat_i[22]
*364 wbs_dat_i[23]
*365 wbs_dat_i[24]
*366 wbs_dat_i[25]
*367 wbs_dat_i[26]
*368 wbs_dat_i[27]
*369 wbs_dat_i[28]
*370 wbs_dat_i[29]
*371 wbs_dat_i[2]
*372 wbs_dat_i[30]
*373 wbs_dat_i[31]
*374 wbs_dat_i[3]
*375 wbs_dat_i[4]
*376 wbs_dat_i[5]
*377 wbs_dat_i[6]
*378 wbs_dat_i[7]
*379 wbs_dat_i[8]
*380 wbs_dat_i[9]
*381 wbs_dat_o[0]
*382 zero_
*383 wbs_sel_i[0]
*384 wbs_sel_i[1]
*385 wbs_sel_i[2]
*386 wbs_sel_i[3]
*387 wbs_stb_i
*388 wbs_we_i
*389 TIE_ZERO_zero_
*390 mprj

*PORTS
io_in[0] I
io_in[10] I
io_in[11] I
io_in[12] I
io_in[13] I
io_in[14] I
io_in[15] I
io_in[16] I
io_in[17] I
io_in[18] I
io_in[19] I
io_in[1] I
io_in[20] I
io_in[21] I
io_in[22] I
io_in[23] I
io_in[24] I
io_in[25] I
io_in[26] I
io_in[27] I
io_in[28] I
io_in[29] I
io_in[2] I
io_in[30] I
io_in[31] I
io_in[32] I
io_in[33] I
io_in[34] I
io_in[35] I
io_in[36] I
io_in[37] I
io_in[3] I
io_in[4] I
io_in[5] I
io_in[6] I
io_in[7] I
io_in[8] I
io_in[9] I
io_oeb[0] O
io_oeb[10] O
io_oeb[11] O
io_oeb[12] O
io_oeb[13] O
io_oeb[14] O
io_oeb[15] O
io_oeb[16] O
io_oeb[17] O
io_oeb[18] O
io_oeb[19] O
io_oeb[1] O
io_oeb[20] O
io_oeb[21] O
io_oeb[22] O
io_oeb[23] O
io_oeb[24] O
io_oeb[25] O
io_oeb[26] O
io_oeb[27] O
io_oeb[28] O
io_oeb[29] O
io_oeb[2] O
io_oeb[30] O
io_oeb[31] O
io_oeb[32] O
io_oeb[33] O
io_oeb[34] O
io_oeb[35] O
io_oeb[36] O
io_oeb[37] O
io_oeb[3] O
io_oeb[4] O
io_oeb[5] O
io_oeb[6] O
io_oeb[7] O
io_oeb[8] O
io_oeb[9] O
io_out[0] O
io_out[10] O
io_out[11] O
io_out[12] O
io_out[13] O
io_out[14] O
io_out[15] O
io_out[16] O
io_out[17] O
io_out[18] O
io_out[19] O
io_out[1] O
io_out[20] O
io_out[21] O
io_out[22] O
io_out[23] O
io_out[24] O
io_out[25] O
io_out[26] O
io_out[27] O
io_out[28] O
io_out[29] O
io_out[2] O
io_out[30] O
io_out[31] O
io_out[32] O
io_out[33] O
io_out[34] O
io_out[35] O
io_out[36] O
io_out[37] O
io_out[3] O
io_out[4] O
io_out[5] O
io_out[6] O
io_out[7] O
io_out[8] O
io_out[9] O
la_data_in[0] I
la_data_in[10] I
la_data_in[11] I
la_data_in[12] I
la_data_in[13] I
la_data_in[14] I
la_data_in[15] I
la_data_in[16] I
la_data_in[17] I
la_data_in[18] I
la_data_in[19] I
la_data_in[1] I
la_data_in[20] I
la_data_in[21] I
la_data_in[22] I
la_data_in[23] I
la_data_in[24] I
la_data_in[25] I
la_data_in[26] I
la_data_in[27] I
la_data_in[28] I
la_data_in[29] I
la_data_in[2] I
la_data_in[30] I
la_data_in[31] I
la_data_in[32] I
la_data_in[33] I
la_data_in[34] I
la_data_in[35] I
la_data_in[36] I
la_data_in[37] I
la_data_in[38] I
la_data_in[39] I
la_data_in[3] I
la_data_in[40] I
la_data_in[41] I
la_data_in[42] I
la_data_in[43] I
la_data_in[44] I
la_data_in[45] I
la_data_in[46] I
la_data_in[47] I
la_data_in[48] I
la_data_in[49] I
la_data_in[4] I
la_data_in[50] I
la_data_in[51] I
la_data_in[52] I
la_data_in[53] I
la_data_in[54] I
la_data_in[55] I
la_data_in[56] I
la_data_in[57] I
la_data_in[58] I
la_data_in[59] I
la_data_in[5] I
la_data_in[60] I
la_data_in[61] I
la_data_in[62] I
la_data_in[63] I
la_data_in[6] I
la_data_in[7] I
la_data_in[8] I
la_data_in[9] I
la_data_out[0] O
la_data_out[10] O
la_data_out[11] O
la_data_out[12] O
la_data_out[13] O
la_data_out[14] O
la_data_out[15] O
la_data_out[16] O
la_data_out[17] O
la_data_out[18] O
la_data_out[19] O
la_data_out[1] O
la_data_out[20] O
la_data_out[21] O
la_data_out[22] O
la_data_out[23] O
la_data_out[24] O
la_data_out[25] O
la_data_out[26] O
la_data_out[27] O
la_data_out[28] O
la_data_out[29] O
la_data_out[2] O
la_data_out[30] O
la_data_out[31] O
la_data_out[32] O
la_data_out[33] O
la_data_out[34] O
la_data_out[35] O
la_data_out[36] O
la_data_out[37] O
la_data_out[38] O
la_data_out[39] O
la_data_out[3] O
la_data_out[40] O
la_data_out[41] O
la_data_out[42] O
la_data_out[43] O
la_data_out[44] O
la_data_out[45] O
la_data_out[46] O
la_data_out[47] O
la_data_out[48] O
la_data_out[49] O
la_data_out[4] O
la_data_out[50] O
la_data_out[51] O
la_data_out[52] O
la_data_out[53] O
la_data_out[54] O
la_data_out[55] O
la_data_out[56] O
la_data_out[57] O
la_data_out[58] O
la_data_out[59] O
la_data_out[5] O
la_data_out[60] O
la_data_out[61] O
la_data_out[62] O
la_data_out[63] O
la_data_out[6] O
la_data_out[7] O
la_data_out[8] O
la_data_out[9] O
la_oenb[0] I
la_oenb[10] I
la_oenb[11] I
la_oenb[12] I
la_oenb[13] I
la_oenb[14] I
la_oenb[15] I
la_oenb[16] I
la_oenb[17] I
la_oenb[18] I
la_oenb[19] I
la_oenb[1] I
la_oenb[20] I
la_oenb[21] I
la_oenb[22] I
la_oenb[23] I
la_oenb[24] I
la_oenb[25] I
la_oenb[26] I
la_oenb[27] I
la_oenb[28] I
la_oenb[29] I
la_oenb[2] I
la_oenb[30] I
la_oenb[31] I
la_oenb[32] I
la_oenb[33] I
la_oenb[34] I
la_oenb[35] I
la_oenb[36] I
la_oenb[37] I
la_oenb[38] I
la_oenb[39] I
la_oenb[3] I
la_oenb[40] I
la_oenb[41] I
la_oenb[42] I
la_oenb[43] I
la_oenb[44] I
la_oenb[45] I
la_oenb[46] I
la_oenb[47] I
la_oenb[48] I
la_oenb[49] I
la_oenb[4] I
la_oenb[50] I
la_oenb[51] I
la_oenb[52] I
la_oenb[53] I
la_oenb[54] I
la_oenb[55] I
la_oenb[56] I
la_oenb[57] I
la_oenb[58] I
la_oenb[59] I
la_oenb[5] I
la_oenb[60] I
la_oenb[61] I
la_oenb[62] I
la_oenb[63] I
la_oenb[6] I
la_oenb[7] I
la_oenb[8] I
la_oenb[9] I
user_clock2 I
user_irq[0] O
user_irq[1] O
user_irq[2] O
wb_clk_i I
wb_rst_i I
wbs_ack_o O
wbs_adr_i[0] I
wbs_adr_i[10] I
wbs_adr_i[11] I
wbs_adr_i[12] I
wbs_adr_i[13] I
wbs_adr_i[14] I
wbs_adr_i[15] I
wbs_adr_i[16] I
wbs_adr_i[17] I
wbs_adr_i[18] I
wbs_adr_i[19] I
wbs_adr_i[1] I
wbs_adr_i[20] I
wbs_adr_i[21] I
wbs_adr_i[22] I
wbs_adr_i[23] I
wbs_adr_i[24] I
wbs_adr_i[25] I
wbs_adr_i[26] I
wbs_adr_i[27] I
wbs_adr_i[28] I
wbs_adr_i[29] I
wbs_adr_i[2] I
wbs_adr_i[30] I
wbs_adr_i[31] I
wbs_adr_i[3] I
wbs_adr_i[4] I
wbs_adr_i[5] I
wbs_adr_i[6] I
wbs_adr_i[7] I
wbs_adr_i[8] I
wbs_adr_i[9] I
wbs_cyc_i I
wbs_dat_i[0] I
wbs_dat_i[10] I
wbs_dat_i[11] I
wbs_dat_i[12] I
wbs_dat_i[13] I
wbs_dat_i[14] I
wbs_dat_i[15] I
wbs_dat_i[16] I
wbs_dat_i[17] I
wbs_dat_i[18] I
wbs_dat_i[19] I
wbs_dat_i[1] I
wbs_dat_i[20] I
wbs_dat_i[21] I
wbs_dat_i[22] I
wbs_dat_i[23] I
wbs_dat_i[24] I
wbs_dat_i[25] I
wbs_dat_i[26] I
wbs_dat_i[27] I
wbs_dat_i[28] I
wbs_dat_i[29] I
wbs_dat_i[2] I
wbs_dat_i[30] I
wbs_dat_i[31] I
wbs_dat_i[3] I
wbs_dat_i[4] I
wbs_dat_i[5] I
wbs_dat_i[6] I
wbs_dat_i[7] I
wbs_dat_i[8] I
wbs_dat_i[9] I
wbs_dat_o[0] O
wbs_dat_o[10] O
wbs_dat_o[11] O
wbs_dat_o[12] O
wbs_dat_o[13] O
wbs_dat_o[14] O
wbs_dat_o[15] O
wbs_dat_o[16] O
wbs_dat_o[17] O
wbs_dat_o[18] O
wbs_dat_o[19] O
wbs_dat_o[1] O
wbs_dat_o[20] O
wbs_dat_o[21] O
wbs_dat_o[22] O
wbs_dat_o[23] O
wbs_dat_o[24] O
wbs_dat_o[25] O
wbs_dat_o[26] O
wbs_dat_o[27] O
wbs_dat_o[28] O
wbs_dat_o[29] O
wbs_dat_o[2] O
wbs_dat_o[30] O
wbs_dat_o[31] O
wbs_dat_o[3] O
wbs_dat_o[4] O
wbs_dat_o[5] O
wbs_dat_o[6] O
wbs_dat_o[7] O
wbs_dat_o[8] O
wbs_dat_o[9] O
wbs_sel_i[0] I
wbs_sel_i[1] I
wbs_sel_i[2] I
wbs_sel_i[3] I
wbs_stb_i I
wbs_we_i I

*D_NET *1 0.168905
*CONN
*P io_in[0] I
*I *390:sel_clk2 I *D top_tukka_proj
*CAP
1 io_in[0] 0.00189776
2 *390:sel_clk2 0.0011776
3 *1:12 0.065121
4 *1:11 0.0639434
5 *1:9 0.0174337
6 *1:7 0.0193314
*RES
1 io_in[0] *1:7 13.005 
2 *1:7 *1:9 136.44 
3 *1:9 *1:11 4.5 
4 *1:11 *1:12 414.63 
5 *1:12 *390:sel_clk2 13.365 
*END

*D_NET *307 0.154628
*CONN
*P user_clock2 I
*I *390:clk2 I *D top_tukka_proj
*CAP
1 user_clock2 0.000868584
2 *390:clk2 0.000871402
3 *307:11 0.0453723
4 *307:10 0.0445009
5 *307:8 0.0195521
6 *307:7 0.0204207
7 *307:11 *371:11 1.55498e-06
8 *307:11 *380:11 0.00887728
9 *307:11 *382:419 0.00470084
10 *307:11 *382:428 0.00477656
11 *307:11 *382:437 0.00468533
*RES
1 user_clock2 *307:7 10.665 
2 *307:7 *307:8 124.29 
3 *307:8 *307:10 4.5 
4 *307:10 *307:11 353.97 
5 *307:11 *390:clk2 10.665 
*END

*D_NET *313 0.105565
*CONN
*P wb_clk_i I
*I *390:clk1 I *D top_tukka_proj
*CAP
1 wb_clk_i 0.000281541
2 *390:clk1 0.000109468
3 *313:16 0.0183685
4 *313:15 0.0182591
5 *313:13 0.0341323
6 *313:11 0.0344139
*RES
1 wb_clk_i *313:11 2.655 
2 *313:11 *313:13 221.85 
3 *313:13 *313:15 4.5 
4 *313:15 *313:16 140.85 
5 *313:16 *390:clk1 18.2945 
*END

*D_NET *314 0.664392
*CONN
*P wb_rst_i I
*I *390:reset_n I *D top_tukka_proj
*CAP
1 wb_rst_i 0.00128748
2 *390:reset_n 0.000262196
3 *314:11 0.00815754
4 *314:10 0.00789535
5 *314:8 0.0366793
6 *314:7 0.0379668
7 *314:8 *316:8 0.304578
8 *314:8 *341:8 0.0847726
9 *314:8 *368:10 0
10 *314:8 *369:10 0.0167637
11 *314:11 *342:11 0.0959694
12 *314:11 *365:11 0.0700589
*RES
1 wb_rst_i *314:7 13.365 
2 *314:7 *314:8 778.41 
3 *314:8 *314:10 4.5 
4 *314:10 *314:11 252.99 
5 *314:11 *390:reset_n 5.625 
*END

*D_NET *316 0.951432
*CONN
*P wbs_adr_i[0] I
*I *390:address[0] I *D top_tukka_proj
*CAP
1 wbs_adr_i[0] 0.00132644
2 *390:address[0] 0.000634655
3 *316:11 0.0565005
4 *316:10 0.0558659
5 *316:8 0.00678601
6 *316:7 0.00811244
7 *316:8 *342:8 0.284978
8 *316:11 *390:read_data[20] 0.0123233
9 *316:11 *371:11 0.195322
10 *316:11 *382:640 0.0122812
11 *316:11 *382:642 0.0127226
12 *314:8 *316:8 0.304578
*RES
1 wbs_adr_i[0] *316:7 13.545 
2 *316:7 *316:8 767.79 
3 *316:8 *316:10 4.5 
4 *316:10 *316:11 644.85 
5 *316:11 *390:address[0] 9.405 
*END

*D_NET *327 0.461375
*CONN
*P wbs_adr_i[1] I
*I *390:address[1] I *D top_tukka_proj
*CAP
1 wbs_adr_i[1] 0.00283994
2 *390:address[1] 0
3 *327:12 0.0393981
4 *327:11 0.0393981
5 *327:9 0.120402
6 *327:7 0.123241
7 *327:12 *351:16 0.136096
*RES
1 wbs_adr_i[1] *327:7 18.585 
2 *327:7 *327:9 780.48 
3 *327:9 *327:11 4.5 
4 *327:11 *327:12 475.11 
5 *327:12 *390:address[1] 4.5 
*END

*D_NET *338 0.195126
*CONN
*P wbs_adr_i[2] I
*I *390:address[2] I *D top_tukka_proj
*CAP
1 wbs_adr_i[2] 0.000235578
2 *390:address[2] 0.000109468
3 *338:16 0.0128028
4 *338:15 0.0126933
5 *338:13 0.0845249
6 *338:11 0.0847604
*RES
1 wbs_adr_i[2] *338:11 2.295 
2 *338:11 *338:13 548.01 
3 *338:13 *338:15 4.5 
4 *338:15 *338:16 97.65 
5 *338:16 *390:address[2] 18.2945 
*END

*D_NET *341 0.16247
*CONN
*P wbs_adr_i[3] I
*I *390:address[3] I *D top_tukka_proj
*CAP
1 wbs_adr_i[3] 0.00130559
2 *390:address[3] 0.000120653
3 *341:11 0.023302
4 *341:10 0.0231813
5 *341:8 0.0142411
6 *341:7 0.0155467
7 *341:8 *366:16 0
8 *314:8 *341:8 0.0847726
*RES
1 wbs_adr_i[3] *341:7 13.185 
2 *341:7 *341:8 212.67 
3 *341:8 *341:10 4.5 
4 *341:10 *341:11 148.77 
5 *341:11 *390:address[3] 0.945 
*END

*D_NET *342 0.60877
*CONN
*P wbs_adr_i[4] I
*I *390:address[4] I *D top_tukka_proj
*CAP
1 wbs_adr_i[4] 0.0010509
2 *390:address[4] 0.000249266
3 *342:11 0.0109732
4 *342:10 0.0107239
5 *342:8 0.0151221
6 *342:7 0.016173
7 *342:7 *375:13 0.000939207
8 *342:8 *344:8 0.00688535
9 *342:8 *354:10 0.00329782
10 *342:8 *357:12 0.073893
11 *342:11 *357:15 0.0242195
12 *342:11 *373:119 0.0642954
13 *314:11 *342:11 0.0959694
14 *316:8 *342:8 0.284978
*RES
1 wbs_adr_i[4] *342:7 13.725 
2 *342:7 *342:8 713.79 
3 *342:8 *342:10 4.5 
4 *342:10 *342:11 317.43 
5 *342:11 *390:address[4] 5.625 
*END

*D_NET *343 0.115192
*CONN
*P wbs_adr_i[5] I
*I *390:address[5] I *D top_tukka_proj
*CAP
1 wbs_adr_i[5] 0.00290042
2 *390:address[5] 0.000109468
3 *343:12 0.00829447
4 *343:11 0.008185
5 *343:9 0.0464011
6 *343:7 0.0493015
*RES
1 wbs_adr_i[5] *343:7 18.585 
2 *343:7 *343:9 300.78 
3 *343:9 *343:11 4.5 
4 *343:11 *343:12 62.55 
5 *343:12 *390:address[5] 18.2945 
*END

*D_NET *344 0.412355
*CONN
*P wbs_adr_i[6] I
*I *390:address[6] I *D top_tukka_proj
*CAP
1 wbs_adr_i[6] 0.0014532
2 *390:address[6] 5.17084e-05
3 *344:11 0.0228967
4 *344:10 0.022845
5 *344:8 0.0222086
6 *344:7 0.0236618
7 *344:7 *377:13 0.000232807
8 *344:8 *352:8 0.114123
9 *344:8 *354:10 0.0106286
10 *344:8 *357:12 0.187368
11 *344:8 *359:8 0
12 *344:8 *361:8 0
13 *342:8 *344:8 0.00688535
*RES
1 wbs_adr_i[6] *344:7 14.445 
2 *344:7 *344:8 573.57 
3 *344:8 *344:10 4.5 
4 *344:10 *344:11 147.51 
5 *344:11 *390:address[6] 0.405 
*END

*D_NET *345 0.0918362
*CONN
*P wbs_adr_i[7] I
*I *390:address[7] I *D top_tukka_proj
*CAP
1 wbs_adr_i[7] 0.00034474
2 *390:address[7] 0.000109468
3 *345:16 0.00621852
4 *345:15 0.00610905
5 *345:13 0.0391555
6 *345:11 0.0395003
7 *345:13 wbs_dat_o[6] 0.000398612
*RES
1 wbs_adr_i[7] *345:11 3.015 
2 *345:11 *345:13 254.25 
3 *345:13 *345:15 4.5 
4 *345:15 *345:16 46.35 
5 *345:16 *390:address[7] 18.2945 
*END

*D_NET *349 0.104406
*CONN
*P wbs_dat_i[0] I
*I *390:write_data[0] I *D top_tukka_proj
*CAP
1 wbs_dat_i[0] 0.00092134
2 *390:write_data[0] 0.00128176
3 *349:11 0.0286308
4 *349:10 0.0273491
5 *349:8 0.0127587
6 *349:7 0.01368
7 *349:7 *381:17 0
8 *349:8 wbs_dat_o[1] 0
9 *349:8 *371:8 0.0111927
10 *349:8 *380:8 0.00667962
11 *349:11 *351:13 0
12 *349:11 *354:11 0
13 *349:11 *381:11 7.45593e-05
14 *349:11 *382:17 0.00183789
*RES
1 wbs_dat_i[0] *349:7 11.025 
2 *349:7 *349:8 112.77 
3 *349:8 *349:10 4.5 
4 *349:10 *349:11 182.07 
5 *349:11 *390:write_data[0] 28.3745 
*END

*D_NET *350 0.233946
*CONN
*P wbs_dat_i[10] I
*I *390:write_data[10] I *D top_tukka_proj
*CAP
1 wbs_dat_i[10] 9.76891e-05
2 *390:write_data[10] 0.00201463
3 *350:13 0.116875
4 *350:11 0.114958
*RES
1 wbs_dat_i[10] *350:11 1.215 
2 *350:11 *350:13 743.49 
3 *350:13 *390:write_data[10] 36.7445 
*END

*D_NET *351 0.428211
*CONN
*P wbs_dat_i[11] I
*I *390:write_data[11] I *D top_tukka_proj
*CAP
1 wbs_dat_i[11] 0.000235578
2 *390:write_data[11] 0
3 *351:16 0.0205651
4 *351:15 0.0205651
5 *351:13 0.123459
6 *351:11 0.123694
7 *351:13 *382:9 0
8 *351:13 *382:470 0
9 *351:16 *358:92 0.00359636
10 *327:12 *351:16 0.136096
11 *349:11 *351:13 0
*RES
1 wbs_dat_i[11] *351:11 2.295 
2 *351:11 *351:13 798.93 
3 *351:13 *351:15 4.5 
4 *351:15 *351:16 340.11 
5 *351:16 *390:write_data[11] 4.5 
*END

*D_NET *352 0.2016
*CONN
*P wbs_dat_i[12] I
*I *390:write_data[12] I *D top_tukka_proj
*CAP
1 wbs_dat_i[12] 0.00162957
2 *390:write_data[12] 0.000258542
3 *352:11 0.0231445
4 *352:10 0.0228859
5 *352:8 0.0189646
6 *352:7 0.0205942
7 *352:8 *359:8 0
8 *352:8 *361:8 0
9 *344:8 *352:8 0.114123
*RES
1 wbs_dat_i[12] *352:7 14.625 
2 *352:7 *352:8 285.93 
3 *352:8 *352:10 4.5 
4 *352:10 *352:11 147.33 
5 *352:11 *390:write_data[12] 2.025 
*END

*D_NET *353 0.0560987
*CONN
*P wbs_dat_i[13] I
*I *390:write_data[13] I *D top_tukka_proj
*CAP
1 wbs_dat_i[13] 0.000166634
2 *390:write_data[13] 0.00097059
3 *353:13 0.0252667
4 *353:11 0.0244627
5 *390:write_data[13] *358:88 0.000103045
6 *390:write_data[13] *358:89 7.69511e-06
7 *390:write_data[13] *366:90 0
8 *390:write_data[13] *382:20 0.00512137
9 *353:13 *358:76 0
*RES
1 wbs_dat_i[13] *353:11 1.755 
2 *353:11 *353:13 156.15 
3 *353:13 *390:write_data[13] 22.995 
*END

*D_NET *354 0.218671
*CONN
*P wbs_dat_i[14] I
*I *390:write_data[14] I *D top_tukka_proj
*CAP
1 wbs_dat_i[14] 0.00210786
2 *390:write_data[14] 0.000820867
3 *354:11 0.0463751
4 *354:10 0.0476621
5 *354:11 *390:error 0.000712602
6 *354:11 *355:19 0
7 *354:11 *356:19 0.00730624
8 *354:11 *362:11 0
9 *354:11 *381:11 0.0997595
10 *354:11 *382:9 0
11 *342:8 *354:10 0.00329782
12 *344:8 *354:10 0.0106286
13 *349:11 *354:11 0
*RES
1 wbs_dat_i[14] *354:10 45.495 
2 *354:10 *354:11 439.11 
3 *354:11 *390:write_data[14] 27.1145 
*END

*D_NET *355 0.628751
*CONN
*P wbs_dat_i[15] I
*I *390:write_data[15] I *D top_tukka_proj
*CAP
1 wbs_dat_i[15] 9.76891e-05
2 *390:write_data[15] 0.000920536
3 *355:22 0.00896372
4 *355:21 0.00804319
5 *355:19 0.0262774
6 *355:18 0.0307959
7 *355:13 0.0247675
8 *355:11 0.0203467
9 *355:13 *358:42 0
10 *355:19 *356:19 0.247468
11 *355:19 *359:11 0.0320468
12 *355:19 *362:11 0.0965232
13 *355:19 *366:97 0.0053511
14 *355:19 *366:103 0
15 *355:22 *356:22 0.0380516
16 *355:22 *374:16 0.00873336
17 *355:22 *376:22 0.00182261
18 *355:22 *382:544 0.0129922
19 *355:22 *382:553 0.0655491
20 *354:11 *355:19 0
*RES
1 wbs_dat_i[15] *355:11 1.215 
2 *355:11 *355:13 130.77 
3 *355:13 *355:18 43.11 
4 *355:18 *355:19 674.19 
5 *355:19 *355:21 4.5 
6 *355:21 *355:22 303.93 
7 *355:22 *390:write_data[15] 10.125 
*END

*D_NET *356 0.650806
*CONN
*P wbs_dat_i[16] I
*I *390:write_data[16] I *D top_tukka_proj
*CAP
1 wbs_dat_i[16] 0.000235578
2 *390:write_data[16] 0.00080394
3 *356:22 0.0274767
4 *356:21 0.0266728
5 *356:19 0.0471271
6 *356:18 0.0471271
7 *356:16 0.000226329
8 *356:13 0.0237149
9 *356:11 0.0237242
10 *356:13 *358:30 0
11 *356:13 *358:42 0.00057184
12 *356:16 *360:16 0.0139609
13 *356:16 *377:16 0.00136283
14 *356:16 *381:8 0.0168589
15 *356:19 *382:473 0.000801733
16 *356:19 *382:487 0.00242591
17 *356:19 *382:501 0.000788624
18 *356:19 *382:515 0.00322835
19 *356:19 *382:534 0.000688942
20 *356:22 *358:100 0.0119296
21 *356:22 *374:16 0
22 *356:22 *376:22 6.39661e-06
23 *356:22 *382:534 0.00408489
24 *356:22 *382:567 0.0125548
25 *356:22 *382:576 0.0130038
26 *356:22 *382:585 0.0522517
27 *356:22 *382:594 0.0129922
28 *356:22 *382:603 0.0133601
29 *354:11 *356:19 0.00730624
30 *355:19 *356:19 0.247468
31 *355:22 *356:22 0.0380516
*RES
1 wbs_dat_i[16] *356:11 2.295 
2 *356:11 *356:13 152.73 
3 *356:13 *356:16 46.89 
4 *356:16 *356:18 4.5 
5 *356:18 *356:19 651.69 
6 *356:19 *356:21 4.5 
7 *356:21 *356:22 467.19 
8 *356:22 *390:write_data[16] 9.585 
*END

*D_NET *357 0.715868
*CONN
*P wbs_dat_i[17] I
*I *390:write_data[17] I *D top_tukka_proj
*CAP
1 wbs_dat_i[17] 0.00180937
2 *390:write_data[17] 0.00192231
3 *357:15 0.0705052
4 *357:14 0.0685829
5 *357:12 0.0183829
6 *357:11 0.0201923
7 *390:write_data[17] *382:629 0.00606683
8 *357:12 *361:8 0
9 *357:15 *373:119 0.242925
10 *342:8 *357:12 0.073893
11 *342:11 *357:15 0.0242195
12 *344:8 *357:12 0.187368
*RES
1 wbs_dat_i[17] *357:11 14.805 
2 *357:11 *357:12 590.67 
3 *357:12 *357:14 4.5 
4 *357:14 *357:15 794.61 
5 *357:15 *390:write_data[17] 29.475 
*END

*D_NET *358 0.321547
*CONN
*P wbs_dat_i[18] I
*I *390:write_data[18] I *D top_tukka_proj
*CAP
1 wbs_dat_i[18] 0.00682581
2 *390:write_data[18] 0.000764982
3 *358:100 0.00355897
4 *358:92 0.0148696
5 *358:91 0.0120756
6 *358:89 0.0788789
7 *358:88 0.0790848
8 *358:85 0.00556558
9 *358:76 0.00981643
10 *358:64 0.00805194
11 *358:55 0.00899181
12 *358:42 0.00844735
13 *358:30 0.00691961
14 *358:15 0.0106946
15 *358:88 *366:90 0.00154164
16 *358:88 *382:20 0
17 *358:89 *359:11 0
18 *358:89 *366:95 0.00235685
19 *358:89 *366:97 0.0458492
20 *358:89 *366:103 0.00104525
21 *358:92 *366:104 0
22 *390:write_data[13] *358:88 0.000103045
23 *390:write_data[13] *358:89 7.69511e-06
24 *351:16 *358:92 0.00359636
25 *353:13 *358:76 0
26 *355:13 *358:42 0
27 *356:13 *358:30 0
28 *356:13 *358:42 0.00057184
29 *356:22 *358:100 0.0119296
*RES
1 wbs_dat_i[18] *358:15 48.825 
2 *358:15 *358:30 49.77 
3 *358:30 *358:42 39.42 
4 *358:42 *358:55 48.51 
5 *358:55 *358:64 37.71 
6 *358:64 *358:76 48.24 
7 *358:76 *358:85 47.61 
8 *358:85 *358:88 8.37 
9 *358:88 *358:89 642.87 
10 *358:89 *358:91 4.5 
11 *358:91 *358:92 109.17 
12 *358:92 *358:100 47.7 
13 *358:100 *390:write_data[18] 4.905 
*END

*D_NET *359 0.3018
*CONN
*P wbs_dat_i[19] I
*I *390:write_data[19] I *D top_tukka_proj
*CAP
1 wbs_dat_i[19] 0.00186107
2 *390:write_data[19] 0.000444495
3 *359:11 0.0378785
4 *359:10 0.037434
5 *359:8 0.00916044
6 *359:7 0.0110215
7 *359:11 *362:11 0.141786
8 *359:11 *366:95 0
9 *359:11 *366:97 0.0301672
10 *344:8 *359:8 0
11 *352:8 *359:8 0
12 *355:19 *359:11 0.0320468
13 *358:89 *359:11 0
*RES
1 wbs_dat_i[19] *359:7 16.065 
2 *359:7 *359:8 71.01 
3 *359:8 *359:10 4.5 
4 *359:10 *359:11 568.89 
5 *359:11 *390:write_data[19] 24.5045 
*END

*D_NET *360 0.12125
*CONN
*P wbs_dat_i[1] I
*I *390:write_data[1] I *D top_tukka_proj
*CAP
1 wbs_dat_i[1] 9.76891e-05
2 *390:write_data[1] 0.000820872
3 *360:16 0.0081442
4 *360:15 0.00732333
5 *360:13 0.0234867
6 *360:11 0.0235844
7 *360:16 *377:16 0.033716
8 *360:16 *381:8 0.000229336
9 *360:16 *388:16 0.00988602
10 *356:16 *360:16 0.0139609
*RES
1 wbs_dat_i[1] *360:11 1.215 
2 *360:11 *360:13 152.55 
3 *360:13 *360:15 4.5 
4 *360:15 *360:16 138.69 
5 *360:16 *390:write_data[1] 9.405 
*END

*D_NET *361 0.703639
*CONN
*P wbs_dat_i[20] I
*I *390:write_data[20] I *D top_tukka_proj
*CAP
1 wbs_dat_i[20] 0.00186107
2 *390:write_data[20] 0.000276961
3 *361:11 0.0690299
4 *361:10 0.0687529
5 *361:8 0.0390981
6 *361:7 0.0409592
7 *361:8 *363:8 0
8 *361:8 *364:8 0.215127
9 *361:11 *364:11 0.268513
10 *361:11 *367:11 2.08301e-05
11 *344:8 *361:8 0
12 *352:8 *361:8 0
13 *357:12 *361:8 0
*RES
1 wbs_dat_i[20] *361:7 16.065 
2 *361:7 *361:8 566.19 
3 *361:8 *361:10 4.5 
4 *361:10 *361:11 771.93 
5 *361:11 *390:write_data[20] 6.705 
*END

*D_NET *362 0.31743
*CONN
*P wbs_dat_i[21] I
*I *390:write_data[21] I *D top_tukka_proj
*CAP
1 wbs_dat_i[21] 0.000962463
2 *390:write_data[21] 0.000472255
3 *362:11 0.0142689
4 *362:10 0.0137966
5 *362:8 0.00748197
6 *362:7 0.00844444
7 *362:8 *380:8 0.0336945
8 *354:11 *362:11 0
9 *355:19 *362:11 0.0965232
10 *359:11 *362:11 0.141786
*RES
1 wbs_dat_i[21] *362:7 11.025 
2 *362:7 *362:8 89.55 
3 *362:8 *362:10 4.5 
4 *362:10 *362:11 378.45 
5 *362:11 *390:write_data[21] 24.6845 
*END

*D_NET *363 0.119242
*CONN
*P wbs_dat_i[22] I
*I *390:write_data[22] I *D top_tukka_proj
*CAP
1 wbs_dat_i[22] 0.00205701
2 *390:write_data[22] 0.000296029
3 *363:11 0.022694
4 *363:10 0.022398
5 *363:8 0.0122047
6 *363:7 0.0142617
7 *363:8 *364:8 0.000252216
8 *363:8 *365:8 0.00580911
9 *363:8 *366:16 0.000344058
10 *363:8 *370:8 0.0389251
11 *361:8 *363:8 0
*RES
1 wbs_dat_i[22] *363:7 17.325 
2 *363:7 *363:8 161.73 
3 *363:8 *363:10 4.5 
4 *363:10 *363:11 144.63 
5 *363:11 *390:write_data[22] 2.025 
*END

*D_NET *364 0.806268
*CONN
*P wbs_dat_i[23] I
*I *390:write_data[23] I *D top_tukka_proj
*CAP
1 wbs_dat_i[23] 0.00188745
2 *390:write_data[23] 0.00031569
3 *364:11 0.024866
4 *364:10 0.0245503
5 *364:8 0.0104179
6 *364:7 0.0123054
7 *364:8 *365:8 0.0660506
8 *364:11 *367:11 0.181983
9 *361:8 *364:8 0.215127
10 *361:11 *364:11 0.268513
11 *363:8 *364:8 0.000252216
*RES
1 wbs_dat_i[23] *364:7 16.245 
2 *364:7 *364:8 538.83 
3 *364:8 *364:10 4.5 
4 *364:10 *364:11 706.95 
5 *364:11 *390:write_data[23] 6.885 
*END

*D_NET *365 0.363157
*CONN
*P wbs_dat_i[24] I
*I *390:write_data[24] I *D top_tukka_proj
*CAP
1 wbs_dat_i[24] 0.00200405
2 *390:write_data[24] 0.000159337
3 *365:11 0.0154578
4 *365:10 0.0152984
5 *365:8 0.015535
6 *365:7 0.017539
7 *365:8 *370:8 0.00332707
8 *365:8 *373:8 0.151918
9 *314:11 *365:11 0.0700589
10 *363:8 *365:8 0.00580911
11 *364:8 *365:8 0.0660506
*RES
1 wbs_dat_i[24] *365:7 16.785 
2 *365:7 *365:8 527.49 
3 *365:8 *365:10 4.5 
4 *365:10 *365:11 184.41 
5 *365:11 *390:write_data[24] 5.175 
*END

*D_NET *366 0.330912
*CONN
*P wbs_dat_i[25] I
*I *390:write_data[25] I *D top_tukka_proj
*CAP
1 wbs_dat_i[25] 0.00328061
2 *390:write_data[25] 0.000372845
3 *366:104 0.0138509
4 *366:103 0.0140247
5 *366:97 0.0631136
6 *366:95 0.0631562
7 *366:90 0.0064822
8 *366:89 0.00759215
9 *366:77 0.00536159
10 *366:68 0.00718726
11 *366:60 0.00786559
12 *366:43 0.0112699
13 *366:40 0.00780504
14 *366:35 0.00648988
15 *366:28 0.00950856
16 *366:16 0.00717522
17 *366:16 *380:8 8.9357e-05
18 *366:89 *377:16 0.00201413
19 *366:89 *381:8 0.00599185
20 *366:89 *382:20 0
21 *366:89 *382:348 0.00162481
22 *366:90 *382:20 0
23 *390:write_data[13] *366:90 0
24 *341:8 *366:16 0
25 *355:19 *366:97 0.0053511
26 *355:19 *366:103 0
27 *358:88 *366:90 0.00154164
28 *358:89 *366:95 0.00235685
29 *358:89 *366:97 0.0458492
30 *358:89 *366:103 0.00104525
31 *358:92 *366:104 0
32 *359:11 *366:95 0
33 *359:11 *366:97 0.0301672
34 *363:8 *366:16 0.000344058
*RES
1 wbs_dat_i[25] *366:16 40.815 
2 *366:16 *366:28 44.46 
3 *366:28 *366:35 45.63 
4 *366:35 *366:40 14.49 
5 *366:40 *366:43 49.23 
6 *366:43 *366:60 47.07 
7 *366:60 *366:68 36 
8 *366:68 *366:77 36.63 